# Test cases for text_indentation function

>>> from 5-text_indentation import text_indentation

# Test 1: Basic test with a question mark
>>> text_indentation("Hello?")
Hello?
<BLANKLINE>

# Test 2: Test with leading spaces
>>> text_indentation("   Hi there.")
Hi there.
<BLANKLINE>

# Test 3: Test with no ending period
>>> text_indentation("No ending period, what bad grammar")
No ending period, what bad grammar

# Test 4: Test with a new line
>>> text_indentation("Let's print a new-line! Here goes:\nPrinted.")
Let's print a new-line! Here goes:
<BLANKLINE>
<BLANKLINE>
Printed.
<BLANKLINE>

# Test 5: Test with multiple new lines
>>> text_indentation("\n\n\n We just printed three new lines.")
<BLANKLINE>
<BLANKLINE>
<BLANKLINE>
We just printed three new lines.
<BLANKLINE>

# Test 6: Test with a sneaky new line
>>> text_indentation("A sneaky \n new line.")
A sneaky 
new line.
<BLANKLINE>

# Test 7: Complex test with Lorem Ipsum
>>> text_indentation("Lorem ipsum dolor sit amet, consectetur adipiscing "
... "elit. Quonam modo? Utrum igitur tibi litteram videor an totas paginas "
... "commovere? Non autem hoc: igitur ne illud quidem. Fortasse id optimum, "
... "sed ubi illud: Plus semper voluptatis? Teneo, inquit, finem illi videri "
... "nihil dolere. Transfer idem ad modestiam vel temperantiam, quae est "
... "moderatio cupiditatum rationi oboediens. Si id dicis, vicimus. Inde "
... "sermone vario sex illa a Dipylo stadia confecimus. Sin aliud quid "
... "voles, postea. Quae animi affectio suum cuique tribuens atque hanc, "
... "quam dico. Utinam quidem dicerent alium alio beatiorem! Iam ruinas "
... "videres") # doctest: +NORMALIZE_WHITESPACE
Lorem ipsum dolor sit amet, consectetur adipiscing elit.
<BLANKLINE>
Quonam modo?
<BLANKLINE>
Utrum igitur tibi litteram videor an totas paginas commovere?
<BLANKLINE>
Non autem hoc:
<BLANKLINE>
igitur ne illud quidem.
<BLANKLINE>
Fortasse id optimum, sed ubi illud:
<BLANKLINE>
Plus semper voluptatis?
<BLANKLINE>
Teneo, inquit, finem illi videri nihil dolere.
<BLANKLINE>
Transfer idem ad modestiam vel temperantiam, 
quae est moderatio cupiditatum rationi oboediens.
<BLANKLINE>
Si id dicis, vicimus.
<BLANKLINE>
Inde sermone vario sex illa a Dipylo stadia confecimus.
<BLANKLINE>
Sin aliud quid voles, postea.
<BLANKLINE>
Quae animi affectio suum cuique tribuens atque hanc, quam dico.
<BLANKLINE>
Utinam quidem dicerent alium alio beatiorem! Iam ruinas videres

# Test 8: Invalid text input, expect TypeError
>>> text_indentation(7)
Traceback (most recent call last):
TypeError: text must be a string

# Test 9: Invalid text input (dictionary), expect TypeError
>>> text_indentation({"one": 1, "two": 2})
Traceback (most recent call last):
TypeError: text must be a string

# Test 10: Invalid text input (None), expect TypeError
>>> text_indentation(None)
Traceback (most recent call last):
TypeError: text must be a string
